test/test_files/IEEE_test_cases/IEEE 24 bus.RAW
 0,    100.00, 33, 0, 0, 60.00       / January 24, 2014 12:32:40


    1,'1           ', 230.0000,3,   1,   1,   1,1.00000,   0.0000
    2,'2           ', 230.0000,2,   1,   1,   1,1.00000,  -0.3522
    3,'3           ', 230.0000,1,   1,   1,   1,0.93306, -22.9607
    4,'4           ', 230.0000,1,   1,   1,   1,0.92021, -16.5792
    5,'5           ', 230.0000,1,   1,   1,   1,0.93476, -12.5316
    6,'6           ', 230.0000,1,   1,   1,   1,0.93854, -19.9640
    7,'7           ', 230.0000,2,   1,   1,   1,1.00001, -26.7497
    8,'8           ', 230.0000,1,   1,   1,   1,0.95936, -27.4717
    9,'9           ', 230.0000,1,   1,   1,   1,0.93826, -25.9728
   10,'10          ', 230.0000,1,   1,   1,   1,0.93465, -22.4929
   11,'11          ', 230.0000,1,   1,   1,   1,0.97955, -25.2255
   12,'12          ', 230.0000,1,   1,   1,   1,0.97541, -25.0673
   13,'13          ', 230.0000,2,   1,   1,   1,1.00001, -25.7607
   14,'14          ', 230.0000,2,   1,   1,   1,1.00001, -25.8898
   15,'15          ', 230.0000,2,   1,   1,   1,1.00000, -26.1280
   16,'16          ', 230.0000,2,   1,   1,   1,1.00000, -26.5413
   17,'17          ', 230.0000,1,   1,   1,   1,1.00117, -26.4024
   18,'18          ', 230.0000,2,   1,   1,   1,1.00000, -26.6927
   19,'19          ', 230.0000,1,   1,   1,   1,0.99701, -27.0944
   20,'20          ', 230.0000,1,   1,   1,   1,0.99827, -26.5552
   21,'21          ', 230.0000,2,   1,   1,   1,1.00001, -25.7374
   22,'22          ', 230.0000,2,   1,   1,   1,1.00001, -23.6070
   23,'23          ', 230.0000,2,   1,   1,   1,1.00001, -25.8588
   24,'24          ', 230.0000,1,   1,   1,   1,0.97686, -24.8838
0 / END OF BUS DATA, BEGIN LOAD DATA
    2,'1 ',1,   1,   1,    97.000,    20.000,     0.000,     0.000,     0.000,    -0.000,   1,1
    3,'1 ',1,   1,   1,    90.000,    19.000,     0.000,     0.000,     0.000,    -0.000,   1,1
    4,'1 ',1,   1,   1,    74.000,    15.000,     0.000,     0.000,     0.000,    -0.000,   1,1
    5,'1 ',1,   1,   1,    71.000,    14.000,     0.000,     0.000,     0.000,    -0.000,   1,1
    6,'1 ',1,   1,   1,    68.000,    14.000,     0.000,     0.000,     0.000,    -0.000,   1,1
    7,'1 ',1,   1,   1,    62.000,    13.000,     0.000,     0.000,     0.000,    -0.000,   1,1
    8,'1 ',1,   1,   1,    85.000,    18.000,     0.000,     0.000,     0.000,    -0.000,   1,1
    9,'1 ',1,   1,   1,   175.000,    36.000,     0.000,     0.000,     0.000,    -0.000,   1,1
   10,'1 ',1,   1,   1,   100.000,    23.000,     0.000,     0.000,     0.000,    -0.000,   1,1
   13,'1 ',1,   1,   1,   130.000,    27.000,     0.000,     0.000,     0.000,    -0.000,   1,1
   14,'1 ',1,   1,   1,    92.000,    20.000,     0.000,     0.000,     0.000,    -0.000,   1,1
   15,'1 ',1,   1,   1,   158.000,    32.000,     0.000,     0.000,     0.000,    -0.000,   1,1
   16,'1 ',1,   1,   1,   100.000,    20.000,     0.000,     0.000,     0.000,    -0.000,   1,1
   18,'1 ',1,   1,   1,   162.000,    34.000,     0.000,     0.000,     0.000,    -0.000,   1,1
   19,'1 ',1,   1,   1,    90.000,    18.000,     0.000,     0.000,     0.000,    -0.000,   1,1
   20,'1 ',1,   1,   1,    65.000,    13.000,     0.000,     0.000,     0.000,    -0.000,   1,1
0 / END OF LOAD DATA, BEGIN FIXED SHUNT DATA
0 / END OF FIXED SHUNT DATA, BEGIN GENERATOR DATA
    1,'1 ',   804.575,  -159.287,  9900.000, -9900.000,1.00000,    0,   100.000,   0.00000,   1.00000,   0.00000,   0.00000,1.00000,1,  100.0,  1000.000,     0.000,   1,1.0000,   0,1.0000,   0,1.0000,   0,1.0000,0, 1.0000
    2,'1 ',   100.000,   282.726,  9900.000, -9900.000,1.00000,    0,   100.000,   0.00000,   1.00000,   0.00000,   0.00000,1.00000,1,  100.0,  1000.000,     0.000,   1,1.0000,   0,1.0000,   0,1.0000,   0,1.0000,0, 1.0000
    7,'1 ',    97.000,    69.584,  9900.000, -9900.000,1.00000,    0,   100.000,   0.00000,   1.00000,   0.00000,   0.00000,1.00000,1,  100.0,  1000.000,     0.000,   1,1.0000,   0,1.0000,   0,1.0000,   0,1.0000,0, 1.0000
   13,'1 ',   100.000,   107.331,  9900.000, -9900.000,1.00000,    0,   100.000,   0.00000,   1.00000,   0.00000,   0.00000,1.00000,1,  100.0,  1000.000,     0.000,   1,1.0000,   0,1.0000,   0,1.0000,   0,1.0000,0, 1.0000
   14,'1 ',   100.000,    60.226,  9900.000, -9900.000,1.00000,    0,   100.000,   0.00000,   1.00000,   0.00000,   0.00000,1.00000,1,  100.0,  1000.000,     0.000,   1,1.0000,   0,1.0000,   0,1.0000,   0,1.0000,0, 1.0000
   15,'1 ',   100.000,    67.689,  9900.000, -9900.000,1.00000,    0,   100.000,   0.00000,   1.00000,   0.00000,   0.00000,1.00000,1,  100.0,  1000.000,     0.000,   1,1.0000,   0,1.0000,   0,1.0000,   0,1.0000,0, 1.0000
   16,'1 ',   100.000,    17.813,  9900.000, -9900.000,1.00000,    0,   100.000,   0.00000,   1.00000,   0.00000,   0.00000,1.00000,1,  100.0,  1000.000,     0.000,   1,1.0000,   0,1.0000,   0,1.0000,   0,1.0000,0, 1.0000
   18,'1 ',     0.000,    40.737,  9900.000, -9900.000,1.00000,    0,   100.000,   0.00000,   1.00000,   0.00000,   0.00000,1.00000,1,  100.0,  1000.000,     0.000,   1,1.0000,   0,1.0000,   0,1.0000,   0,1.0000,0, 1.0000
   21,'1 ',   100.000,   -32.948,  9900.000, -9900.000,1.00000,    0,   100.000,   0.00000,   1.00000,   0.00000,   0.00000,1.00000,1,  100.0,  1000.000,     0.000,   1,1.0000,   0,1.0000,   0,1.0000,   0,1.0000,0, 1.0000
   22,'1 ',   100.000,   -28.333,  9900.000, -9900.000,1.00000,    0,   100.000,   0.00000,   1.00000,   0.00000,   0.00000,1.00000,1,  100.0,  1000.000,     0.000,   1,1.0000,   0,1.0000,   0,1.0000,   0,1.0000,0, 1.0000
   23,'1 ',   100.000,     6.433,  9900.000, -9900.000,1.00000,    0,   100.000,   0.00000,   1.00000,   0.00000,   0.00000,1.00000,1,  100.0,  1000.000,     0.000,   1,1.0000,   0,1.0000,   0,1.0000,   0,1.0000,0, 1.0000
0 / END OF GENERATOR DATA, BEGIN BRANCH DATA
    1,     2,'1 ', 0.00070, 0.00123,0.00065, 175.00,   0.00,   0.00,  0.00000,  0.00000,  0.00000,  0.00000,1,1,   0.0,   1,1.0000,   0,1.0000,   0,1.0000,   0,1.0000
    3,     1,'1 ', 0.05419, 0.21114,0.06130, 175.00,   0.00,   0.00,  0.00000,  0.00000,  0.00000,  0.00000,1,1,   0.0,   1,1.0000,   0,1.0000,   0,1.0000,   0,1.0000
    1,     5,'1 ', 0.02243, 0.08490,0.02440, 175.00,   0.00,   0.00,  0.00000,  0.00000,  0.00000,  0.00000,1,1,   0.0,   1,1.0000,   0,1.0000,   0,1.0000,   0,1.0000
    2,     4,'1 ', 0.03361, 0.12730,0.03660, 175.00,   0.00,   0.00,  0.00000,  0.00000,  0.00000,  0.00000,1,1,   0.0,   1,1.0000,   0,1.0000,   0,1.0000,   0,1.0000
    2,     6,'1 ', 0.05064, 0.19201,0.05570, 175.00,   0.00,   0.00,  0.00000,  0.00000,  0.00000,  0.00000,1,1,   0.0,   1,1.0000,   0,1.0000,   0,1.0000,   0,1.0000
    3,     9,'1 ', 0.03148, 0.11921,0.03430, 175.00,   0.00,   0.00,  0.00000,  0.00000,  0.00000,  0.00000,1,1,   0.0,   1,1.0000,   0,1.0000,   0,1.0000,   0,1.0000
    4,     9,'1 ', 0.02692, 0.10779,0.02790, 175.00,   0.00,   0.00,  0.00000,  0.00000,  0.00000,  0.00000,1,1,   0.0,   1,1.0000,   0,1.0000,   0,1.0000,   0,1.0000
   10,     6,'1 ', 0.02262, 0.03333,0.13029, 175.00,   0.00,   0.00,  0.00000,  0.00000,  0.00000,  0.00000,1,1,   0.0,   1,1.0000,   0,1.0000,   0,1.0000,   0,1.0000
    7,     8,'1 ', 0.01614, 0.06103,0.01790, 175.00,   0.00,   0.00,  0.00000,  0.00000,  0.00000,  0.00000,1,1,   0.0,   1,1.0000,   0,1.0000,   0,1.0000,   0,1.0000
    8,     9,'1 ', 0.04234, 0.16482,0.04780, 175.00,   0.00,   0.00,  0.00000,  0.00000,  0.00000,  0.00000,1,1,   0.0,   1,1.0000,   0,1.0000,   0,1.0000,   0,1.0000
    8,    10,'1 ', 0.04234, 0.16482,0.04780, 175.00,   0.00,   0.00,  0.00000,  0.00000,  0.00000,  0.00000,1,1,   0.0,   1,1.0000,   0,1.0000,   0,1.0000,   0,1.0000
   11,    13,'1 ', 0.00583, 0.04746,0.09590, 500.00,   0.00,   0.00,  0.00000,  0.00000,  0.00000,  0.00000,1,1,   0.0,   1,1.0000,   0,1.0000,   0,1.0000,   0,1.0000
   11,    14,'1 ', 0.00513, 0.04172,0.08430, 500.00,   0.00,   0.00,  0.00000,  0.00000,  0.00000,  0.00000,1,1,   0.0,   1,1.0000,   0,1.0000,   0,1.0000,   0,1.0000
   12,    13,'1 ', 0.00583, 0.04760,0.09590, 500.00,   0.00,   0.00,  0.00000,  0.00000,  0.00000,  0.00000,1,1,   0.0,   1,1.0000,   0,1.0000,   0,1.0000,   0,1.0000
   12,    23,'1 ', 0.01224, 0.09644,0.19840, 500.00,   0.00,   0.00,  0.00000,  0.00000,  0.00000,  0.00000,1,1,   0.0,   1,1.0000,   0,1.0000,   0,1.0000,   0,1.0000
   23,    13,'1 ', 0.01060, 0.08643,0.17520, 500.00,   0.00,   0.00,  0.00000,  0.00000,  0.00000,  0.00000,1,1,   0.0,   1,1.0000,   0,1.0000,   0,1.0000,   0,1.0000
   14,    16,'1 ', 0.00477, 0.03884,0.07850, 500.00,   0.00,   0.00,  0.00000,  0.00000,  0.00000,  0.00000,1,1,   0.0,   1,1.0000,   0,1.0000,   0,1.0000,   0,1.0000
   16,    15,'1 ', 0.00212, 0.17269,0.03490, 500.00,   0.00,   0.00,  0.00000,  0.00000,  0.00000,  0.00000,1,1,   0.0,   1,1.0000,   0,1.0000,   0,1.0000,   0,1.0000
   21,    15,'2 ', 0.00607, 0.04899,0.10060, 500.00,   0.00,   0.00,  0.00000,  0.00000,  0.00000,  0.00000,1,1,   0.0,   1,1.0000,   0,1.0000,   0,1.0000,   0,1.0000
   15,    21,'1 ', 0.00607, 0.04899,0.10060, 500.00,   0.00,   0.00,  0.00000,  0.00000,  0.00000,  0.00000,1,1,   0.0,   1,1.0000,   0,1.0000,   0,1.0000,   0,1.0000
   15,    24,'1 ', 0.00642, 0.05187,0.10660, 500.00,   0.00,   0.00,  0.00000,  0.00000,  0.00000,  0.00000,1,1,   0.0,   1,1.0000,   0,1.0000,   0,1.0000,   0,1.0000
   16,    17,'1 ', 0.00318, 0.02590,0.05230, 500.00,   0.00,   0.00,  0.00000,  0.00000,  0.00000,  0.00000,1,1,   0.0,   1,1.0000,   0,1.0000,   0,1.0000,   0,1.0000
   16,    19,'1 ', 0.00283, 0.02302,0.04650, 500.00,   0.00,   0.00,  0.00000,  0.00000,  0.00000,  0.00000,1,1,   0.0,   1,1.0000,   0,1.0000,   0,1.0000,   0,1.0000
   17,    18,'1 ', 0.00177, 0.01439,0.02910, 500.00,   0.00,   0.00,  0.00000,  0.00000,  0.00000,  0.00000,1,1,   0.0,   1,1.0000,   0,1.0000,   0,1.0000,   0,1.0000
   17,    22,'1 ', 0.01225, 0.10527,0.21160, 500.00,   0.00,   0.00,  0.00000,  0.00000,  0.00000,  0.00000,1,1,   0.0,   1,1.0000,   0,1.0000,   0,1.0000,   0,1.0000
   18,    21,'2 ', 0.00331, 0.02595,0.05330, 500.00,   0.00,   0.00,  0.00000,  0.00000,  0.00000,  0.00000,1,1,   0.0,   1,1.0000,   0,1.0000,   0,1.0000,   0,1.0000
   18,    21,'1 ', 0.00331, 0.02595,0.05330, 500.00,   0.00,   0.00,  0.00000,  0.00000,  0.00000,  0.00000,1,1,   0.0,   1,1.0000,   0,1.0000,   0,1.0000,   0,1.0000
   19,    20,'2 ', 0.00505, 0.03964,0.08140, 500.00,   0.00,   0.00,  0.00000,  0.00000,  0.00000,  0.00000,1,1,   0.0,   1,1.0000,   0,1.0000,   0,1.0000,   0,1.0000
   19,    20,'1 ', 0.00505, 0.03964,0.08140, 500.00,   0.00,   0.00,  0.00000,  0.00000,  0.00000,  0.00000,1,1,   0.0,   1,1.0000,   0,1.0000,   0,1.0000,   0,1.0000
   20,    23,'2 ', 0.00276, 0.02163,0.04440, 500.00,   0.00,   0.00,  0.00000,  0.00000,  0.00000,  0.00000,1,1,   0.0,   1,1.0000,   0,1.0000,   0,1.0000,   0,1.0000
   20,    23,'1 ', 0.00276, 0.02163,0.04440, 500.00,   0.00,   0.00,  0.00000,  0.00000,  0.00000,  0.00000,1,1,   0.0,   1,1.0000,   0,1.0000,   0,1.0000,   0,1.0000
   21,    22,'1 ', 0.00829, 0.06769,0.13670, 500.00,   0.00,   0.00,  0.00000,  0.00000,  0.00000,  0.00000,1,1,   0.0,   1,1.0000,   0,1.0000,   0,1.0000,   0,1.0000
0 / END OF BRANCH DATA, BEGIN TRANSFORMER DATA
   24,    3,    0,'1 ',1,1,1,  0.00000,  0.00000,2,'        ',1,   1,1.0000,   0,1.0000,   0,1.0000,   0,1.0000
 0.00230, 0.08390, 100.00
1.00000,  0.000,   0.000, 400.00,   0.00,   0.00,0,     0, 1.50000, 0.51000, 1.50000, 0.51000,159, 0, 0.00000, 0.00000
1.00000,  0.000
    5,   10,    0,'1 ',1,1,1,  0.00000,  0.02540,2,'        ',1,   1,1.0000,   0,1.0000,   0,1.0000,   0,1.0000
 0.02334, 0.08837, 100.00
1.00000,  0.000,   0.000, 175.00,   0.00,   0.00,0,     0, 1.50000, 0.51000, 1.50000, 0.51000,159, 0, 0.00000, 0.00000
1.00000,  0.000
   11,    9,    0,'1 ',1,1,1,  0.00000,  0.00000,2,'        ',1,   1,1.0000,   0,1.0000,   0,1.0000,   0,1.0000
 0.00230, 0.08390, 100.00
1.00000,  0.000,   0.000, 400.00,   0.00,   0.00,0,     0, 1.50000, 0.51000, 1.50000, 0.51000,159, 0, 0.00000, 0.00000
1.00000,  0.000
    9,   12,    0,'1 ',1,1,1,  0.00000,  0.00000,2,'        ',1,   1,1.0000,   0,1.0000,   0,1.0000,   0,1.0000
 0.00230, 0.08390, 100.00
1.00000,  0.000,   0.000, 400.00,   0.00,   0.00,0,     0, 1.50000, 0.51000, 1.50000, 0.51000,159, 0, 0.00000, 0.00000
1.00000,  0.000
   11,   10,    0,'1 ',1,1,1,  0.00000,  0.00000,2,'        ',1,   1,1.0000,   0,1.0000,   0,1.0000,   0,1.0000
 0.00230, 0.08390, 100.00
1.00000,  0.000,   0.000, 400.00,   0.00,   0.00,0,     0, 1.50000, 0.51000, 1.50000, 0.51000,159, 0, 0.00000, 0.00000
1.00000,  0.000
   12,   10,    0,'1 ',1,1,1,  0.00000,  0.00000,2,'        ',1,   1,1.0000,   0,1.0000,   0,1.0000,   0,1.0000
 0.00230, 0.08390, 100.00
1.00000,  0.000,   0.000, 400.00,   0.00,   0.00,0,     0, 1.50000, 0.51000, 1.50000, 0.51000,159, 0, 0.00000, 0.00000
1.00000,  0.000
0 / END OF TRANSFORMER DATA, BEGIN AREA DATA
   1,    0,     0.000,     1.000,'1           '
0 / END OF AREA DATA, BEGIN TWO-TERMINAL DC DATA
0 / END OF TWO-TERMINAL DC DATA, BEGIN VOLTAGE SOURCE CONVERTER DATA
0 / END OF VOLTAGE SOURCE CONVERTER DATA, BEGIN IMPEDANCE CORRECTION DATA
0 / END OF IMPEDANCE CORRECTION DATA, BEGIN MULTI-TERMINAL DC DATA
0 / END OF MULTI-TERMINAL DC DATA, BEGIN MULTI-SECTION LINE DATA
0 / END OF MULTI-SECTION LINE DATA, BEGIN ZONE DATA
   1,'1       '
0 / END OF ZONE DATA, BEGIN INTER-AREA TRANSFER DATA
0 / END OF INTER-AREA TRANSFER DATA, BEGIN OWNER DATA
    1,'1'
0 / END OF OWNER DATA, BEGIN FACTS CONTROL DEVICE DATA
0 / END OF FACTS CONTROL DEVICE DATA, BEGIN SWITCHED SHUNT DATA
0 /END OF SWITCHED SHUNT DATA, BEGIN GNE DEVICE DATA
0 /END OF GNE DEVICE DATA
Q
